
**** 09/14/23 18:12:01 ******* PSpice Lite (March 2016) ******* ID# 10813 ****

 ** Profile: "SCHEMATIC1-SWEEPPPP"  [ Z:\Downloads\ACSWEEP-PSpiceFiles\SCHEMATIC1\SWEEPPPP.sim ] 


 ****     CIRCUIT DESCRIPTION


******************************************************************************




** Creating circuit file "SWEEPPPP.cir" 
** WARNING: THIS AUTOMATICALLY GENERATED FILE MAY BE OVERWRITTEN BY SUBSEQUENT SIMULATIONS

*Libraries: 
* Profile Libraries :
* Local Libraries :
* From [PSPICE NETLIST] section of C:\Users\adriansd\AppData\Local\Temp\17.2.0\PSpice.ini file:
.lib "nomd.lib" 

*Analysis directives: 
.AC DEC 11 0.1 10kHz
.OPTIONS ADVCONV
.PROBE64 V(alias(*)) I(alias(*)) W(alias(*)) D(alias(*)) NOISE(alias(*)) 
.INC "..\SCHEMATIC1.net" 



**** INCLUDING SCHEMATIC1.net ****
* source ACSWEEP
R_R1         N01364 N01374  10k TC=0,0 
C_C1         0 N01374  5u  TC=0,0 
R_R2         0 N01374  1k TC=0,0 
V_V1         N01364 0 DC 0Vdc AC 1Vac 

**** RESUMING SWEEPPPP.cir ****
.END

**** 09/14/23 18:12:01 ******* PSpice Lite (March 2016) ******* ID# 10813 ****

 ** Profile: "SCHEMATIC1-SWEEPPPP"  [ Z:\Downloads\ACSWEEP-PSpiceFiles\SCHEMATIC1\SWEEPPPP.sim ] 


 ****     SMALL SIGNAL BIAS SOLUTION       TEMPERATURE =   27.000 DEG C


******************************************************************************



 NODE   VOLTAGE     NODE   VOLTAGE     NODE   VOLTAGE     NODE   VOLTAGE


(N01364)    0.0000 (N01374)    0.0000 




    VOLTAGE SOURCE CURRENTS
    NAME         CURRENT

    V_V1         0.000E+00

    TOTAL POWER DISSIPATION   0.00E+00  WATTS



          JOB CONCLUDED

**** 09/14/23 18:12:01 ******* PSpice Lite (March 2016) ******* ID# 10813 ****

 ** Profile: "SCHEMATIC1-SWEEPPPP"  [ Z:\Downloads\ACSWEEP-PSpiceFiles\SCHEMATIC1\SWEEPPPP.sim ] 


 ****     JOB STATISTICS SUMMARY


******************************************************************************



  Total job time (using Solver 1)   =         .05
